hetb
 OpenBabel06172516493D

 52 54  0  0  1  0  0  0  0  0999 V2000
    3.5569    2.0649   -2.0359 N   0  0  0  0  0  0  0  0  0  0  0  0
    4.6724    2.5462   -2.5103 C   0  0  0  0  0  0  0  0  0  0  0  0
    5.7437    1.7530   -2.8551 N   0  0  0  0  0  0  0  0  0  0  0  0
    4.8452    3.9026   -2.6780 N   0  0  0  0  0  0  0  0  0  0  0  0
    3.8911    4.8206   -2.3258 C   0  0  0  0  0  0  0  0  0  0  0  0
    4.0569    6.0356   -2.3038 O   0  0  0  0  0  0  0  0  0  0  0  0
    2.6077    4.2464   -1.8888 C   0  0  0  0  0  0  0  0  0  0  0  0
    1.4947    5.1473   -1.5803 N   0  3  0  0  0  0  0  0  0  0  0  0
    0.3402    4.6743   -1.2837 C   0  0  0  0  0  0  0  0  0  0  0  0
    0.1031    3.2059   -1.1823 C   0  0  0  0  0  0  0  0  0  0  0  0
    1.3091    2.4073   -1.2843 N   0  0  0  0  0  0  0  0  0  0  0  0
    2.5172    2.9125   -1.7503 C   0  0  0  0  0  0  0  0  0  0  0  0
   -0.8040    5.6114   -1.0785 C   0  0  0  0  0  0  0  0  0  0  0  0
   -0.4693    6.9952   -1.3581 N   0  0  0  0  0  0  0  0  0  0  0  0
   -0.4739    8.1839   -5.3967 C   0  0  0  0  0  0  0  0  0  0  0  0
   -0.3733    9.1313   -4.3798 C   0  0  0  0  0  0  0  0  0  0  0  0
   -0.4003    8.7223   -3.0463 C   0  0  0  0  0  0  0  0  0  0  0  0
   -0.5667    7.3751   -2.7107 C   0  0  0  0  0  0  0  0  0  0  0  0
   -0.7293    6.4438   -3.7420 C   0  0  0  0  0  0  0  0  0  0  0  0
   -0.6679    6.8397   -5.0780 C   0  0  0  0  0  0  0  0  0  0  0  0
   -0.4031    8.6260   -6.8060 C   0  0  0  0  0  0  0  0  0  0  0  0
   -0.7556    9.7624   -7.0921 O   0  0  0  0  0  0  0  0  0  0  0  0
    0.0936    7.6705   -7.6440 N   0  0  0  0  0  0  0  0  0  0  0  0
   -0.0136    7.6756   -9.1049 C   0  0  1  0  0  0  0  0  0  0  0  0
    1.3513    7.4350   -9.7314 C   0  0  0  0  0  0  0  0  0  0  0  0
    1.8903    8.6313  -10.5018 C   0  0  0  0  0  0  0  0  0  0  0  0
    2.9457    8.1761  -11.5103 C   0  0  0  0  0  0  0  0  0  0  0  0
    2.7231    7.0903  -12.1098 O   0  0  0  0  0  0  0  0  0  0  0  0
    3.9355    8.9569  -11.6381 O   0  5  0  0  0  0  0  0  0  0  0  0
   -0.8711    6.4717   -9.5841 C   0  0  0  0  0  0  0  0  0  0  0  0
   -0.7548    5.3982   -8.9098 O   0  0  0  0  0  0  0  0  0  0  0  0
   -1.6651    6.7149  -10.5390 O   0  5  0  0  0  0  0  0  0  0  0  0
    6.6037    2.1817   -3.2259 H   0  0  0  0  0  0  0  0  0  0  0  0
    5.6851    0.7309   -2.7421 H   0  0  0  0  0  0  0  0  0  0  0  0
    5.7287    4.2408   -3.0853 H   0  0  0  0  0  0  0  0  0  0  0  0
    1.6402    6.1668   -1.6016 H   0  0  0  0  0  0  0  0  0  0  0  0
   -0.3690    2.9976   -0.2109 H   0  0  0  0  0  0  0  0  0  0  0  0
   -0.5374    2.9266   -2.0319 H   0  0  0  0  0  0  0  0  0  0  0  0
    1.2686    1.4188   -0.9978 H   0  0  0  0  0  0  0  0  0  0  0  0
   -1.6262    5.3097   -1.7441 H   0  0  0  0  0  0  0  0  0  0  0  0
   -1.0872    5.5526   -0.0172 H   0  0  0  0  0  0  0  0  0  0  0  0
   -0.1809    7.6530   -0.6198 H   0  0  0  0  0  0  0  0  0  0  0  0
   -0.2729   10.1983   -4.6277 H   0  0  0  0  0  0  0  0  0  0  0  0
   -0.2890    9.4702   -2.2474 H   0  0  0  0  0  0  0  0  0  0  0  0
   -0.9077    5.3866   -3.4962 H   0  0  0  0  0  0  0  0  0  0  0  0
   -0.7724    6.0931   -5.8791 H   0  0  0  0  0  0  0  0  0  0  0  0
    0.5869    6.8764   -7.2116 H   0  0  0  0  0  0  0  0  0  0  0  0
   -0.4471    8.6450   -9.3917 H   0  0  0  0  0  0  0  0  0  0  0  0
    2.0630    7.1891   -8.9294 H   0  0  0  0  0  0  0  0  0  0  0  0
    1.2331    6.6141  -10.4540 H   0  0  0  0  0  0  0  0  0  0  0  0
    1.0637    9.1216  -11.0368 H   0  0  0  0  0  0  0  0  0  0  0  0
    2.3500    9.3371   -9.7942 H   0  0  0  0  0  0  0  0  0  0  0  0
  1 12  1  0  0  0  0
  2  1  2  0  0  0  0
  3  2  1  0  0  0  0
  3 33  1  0  0  0  0
  3 34  1  0  0  0  0
  4  2  1  0  0  0  0
  4  5  1  0  0  0  0
  4 35  1  0  0  0  0
  5  7  1  0  0  0  0
  6  5  2  0  0  0  0
  7 12  2  0  0  0  0
  7  8  1  0  0  0  0
  8  9  2  0  0  0  0
  8 36  1  0  0  0  0
  9 10  1  0  0  0  0
  9 13  1  0  0  0  0
 10 37  1  0  0  0  0
 10 38  1  0  0  0  0
 11 10  1  0  0  0  0
 11 39  1  0  0  0  0
 12 11  1  0  0  0  0
 13 40  1  0  0  0  0
 13 41  1  0  0  0  0
 14 13  1  0  0  0  0
 14 42  1  0  0  0  0
 15 20  2  0  0  0  0
 15 16  1  0  0  0  0
 16 17  2  0  0  0  0
 16 43  1  0  0  0  0
 17 18  1  0  0  0  0
 17 44  1  0  0  0  0
 18 14  1  0  0  0  0
 19 18  2  0  0  0  0
 19 45  1  0  0  0  0
 20 19  1  0  0  0  0
 20 46  1  0  0  0  0
 21 15  1  0  0  0  0
 22 21  2  0  0  0  0
 23 21  1  0  0  0  0
 23 47  1  0  0  0  0
 24 23  1  0  0  0  0
 24 48  1  6  0  0  0
 25 24  1  0  0  0  0
 25 49  1  0  0  0  0
 25 50  1  0  0  0  0
 26 25  1  0  0  0  0
 26 51  1  0  0  0  0
 26 52  1  0  0  0  0
 27 26  1  0  0  0  0
 28 27  2  0  0  0  0
 29 27  1  0  0  0  0
 30 24  1  0  0  0  0
 30 31  2  0  0  0  0
 32 30  1  0  0  0  0
M  CHG  3   8   1  29  -1  32  -1
M  END
$$$$
