lig
 OpenBabel06172516493D

 76 80  0  0  1  0  0  0  0  0999 V2000
   -6.0910    3.9710    6.9480 P   0  0  1  0  0  0  0  0  0  0  0  0
   -5.6710    2.5990    7.3260 O   0  0  0  0  0  0  0  0  0  0  0  0
   -5.9240    4.5880    5.5920 O   0  0  0  0  0  0  0  0  0  0  0  0
   -7.6400    4.2320    7.2300 O   0  0  0  0  0  0  0  0  0  0  0  0
   -8.2810    3.7960    8.4500 C   0  0  0  0  0  0  0  0  0  0  0  0
   -9.7940    3.7550    8.2860 C   0  0  1  0  0  0  0  0  0  0  0  0
  -10.4130    2.9300    7.2680 O   0  0  0  0  0  0  0  0  0  0  0  0
  -10.6180    3.4510    9.5380 C   0  0  1  0  0  0  0  0  0  0  0  0
  -10.6170    4.6550   10.2790 O   0  0  0  0  0  0  0  0  0  0  0  0
  -12.0190    3.0890    9.0040 C   0  0  1  0  0  0  0  0  0  0  0  0
  -12.6740    4.2160    8.4230 O   0  0  0  0  0  0  0  0  0  0  0  0
  -11.5700    2.2960    7.7740 C   0  0  2  0  0  0  0  0  0  0  0  0
  -11.3700    0.8710    8.0420 N   0  0  0  0  0  0  0  0  0  0  0  0
  -10.2210    0.1420    8.2650 C   0  0  0  0  0  0  0  0  0  0  0  0
  -10.4690   -1.1530    8.4840 N   0  0  0  0  0  0  0  0  0  0  0  0
  -11.8830   -1.2450    8.4110 C   0  0  0  0  0  0  0  0  0  0  0  0
  -12.7800   -2.3380    8.5200 C   0  0  1  0  0  3  0  0  0  0  0  0
  -12.3710   -3.5720    8.7720 N   0  0  0  0  0  0  0  0  0  0  0  0
  -14.0950   -2.0930    8.3750 N   0  0  0  0  0  0  0  0  0  0  0  0
  -14.4550   -0.8210    8.1210 C   0  0  0  0  0  0  0  0  0  0  0  0
  -13.7210    0.3130    8.0000 N   0  0  0  0  0  2  0  0  0  0  0  0
  -12.4310    0.0070    8.1460 C   0  0  0  0  0  0  0  0  0  0  0  0
   -5.5860    4.9250    8.1160 O   0  0  0  0  0  0  0  0  0  0  0  0
   -4.1230    5.1590    8.7970 P   0  0  2  0  0  0  0  0  0  0  0  0
   -3.8320    3.8790    9.5150 O   0  0  0  0  0  0  0  0  0  0  0  0
   -4.1980    6.4670    9.5310 O   0  0  0  0  0  1  0  0  0  0  0  0
   -3.1140    5.3100    7.5590 O   0  0  0  0  0  0  0  0  0  0  0  0
   -3.2040    6.6120    6.8230 C   0  0  0  0  0  0  0  0  0  0  0  0
   -1.7040    7.0590    7.0030 C   0  0  1  0  0  0  0  0  0  0  0  0
   -0.9380    6.0790    6.2340 O   0  0  0  0  0  0  0  0  0  0  0  0
   -1.1970    8.3270    6.2250 C   0  0  1  0  0  0  0  0  0  0  0  0
   -0.1630    9.0310    6.7900 O   0  0  0  0  0  0  0  0  0  0  0  0
   -0.9350    7.8790    4.7530 C   0  0  1  0  0  0  0  0  0  0  0  0
   -0.1830    8.9270    4.2630 O   0  0  0  0  0  0  0  0  0  0  0  0
   -0.2590    6.6360    5.0510 C   0  0  2  0  0  0  0  0  0  0  0  0
    0.0610    5.5760    3.9690 N   0  0  0  0  0  0  0  0  0  0  0  0
    1.3540    5.2490    3.5250 C   0  0  0  0  0  0  0  0  0  0  0  0
    1.5460    4.3270    2.5900 C   0  0  0  0  0  0  0  0  0  0  0  0
    2.9230    4.0330    2.1660 C   0  0  0  0  0  0  0  0  0  0  0  0
    3.1760    3.0890    1.3620 O   0  0  0  0  0  0  0  0  0  0  0  0
    3.9430    4.7940    2.5720 N   0  0  0  0  0  0  0  0  0  0  0  0
    0.3550    3.5500    1.9460 C   0  0  0  0  0  3  0  0  0  0  0  0
   -1.0000    3.9760    2.5150 C   0  0  0  0  0  0  0  0  0  0  0  0
   -1.0000    4.8930    3.4060 C   0  0  0  0  0  0  0  0  0  0  0  0
  -13.8470    4.9950    9.1770 P   0  0  0  0  0  0  0  0  0  0  0  0
  -14.5140    5.9610    8.1590 O   0  0  0  0  0  0  0  0  0  0  0  0
  -14.4740    3.7070    9.6290 O   0  0  0  0  0  0  0  0  0  0  0  0
  -13.2200    5.8500   10.2590 O   0  0  0  0  0  0  0  0  0  0  0  0
   -6.4510    5.4050    5.6440 H   0  0  0  0  0  0  0  0  0  0  0  0
   -8.0320    4.4880    9.2880 H   0  0  0  0  0  0  0  0  0  0  0  0
   -7.9480    2.7730    8.7480 H   0  0  0  0  0  0  0  0  0  0  0  0
  -10.0630    4.7790    7.9490 H   0  0  0  0  0  0  0  0  0  0  0  0
  -10.1780    2.6230   10.1140 H   0  0  0  0  0  0  0  0  0  0  0  0
  -10.2390    4.4650   11.1550 H   0  0  0  0  0  0  0  0  0  0  0  0
  -12.5650    2.4570    9.7190 H   0  0  0  0  0  0  0  0  0  0  0  0
  -12.3820    2.3880    7.0840 H   0  0  0  0  0  0  0  0  0  0  0  0
   -9.2290    0.5980    8.2290 H   0  0  0  0  0  0  0  0  0  0  0  0
  -13.0270   -4.1990    9.2000 H   0  0  0  0  0  0  0  0  0  0  0  0
  -11.5300   -3.9100    8.3540 H   0  0  0  0  0  0  0  0  0  0  0  0
  -15.5350   -0.6720    8.0120 H   0  0  0  0  0  0  0  0  0  0  0  0
   -3.8360    7.4050    7.2830 H   0  0  0  0  0  0  0  0  0  0  0  0
   -3.4450    6.4720    5.7510 H   0  0  0  0  0  0  0  0  0  0  0  0
   -1.3820    7.0390    8.0510 H   0  0  0  0  0  0  0  0  0  0  0  0
   -2.0730    8.9790    6.1610 H   0  0  0  0  0  0  0  0  0  0  0  0
   -0.4200    9.3380    7.6890 H   0  0  0  0  0  0  0  0  0  0  0  0
   -1.8720    7.7390    4.1910 H   0  0  0  0  0  0  0  0  0  0  0  0
    0.2060    9.3430    5.0590 H   0  0  0  0  0  0  0  0  0  0  0  0
    0.7110    6.8970    5.4800 H   0  0  0  0  0  0  0  0  0  0  0  0
    2.1860    5.8090    3.9490 H   0  0  0  0  0  0  0  0  0  0  0  0
    4.8760    4.4760    2.3760 H   0  0  0  0  0  0  0  0  0  0  0  0
    3.8440    5.5750    3.1890 H   0  0  0  0  0  0  0  0  0  0  0  0
    0.4870    2.6990    1.2680 H   0  0  0  0  0  0  0  0  0  0  0  0
   -1.9330    3.5280    2.1680 H   0  0  0  0  0  0  0  0  0  0  0  0
   -1.9760    5.2080    3.7890 H   0  0  0  0  0  0  0  0  0  0  0  0
  -13.9560    3.2790   10.3360 H   0  0  0  0  0  0  0  0  0  0  0  0
  -13.3730    5.5480   11.1790 H   0  0  0  0  0  0  0  0  0  0  0  0
  1  4  1  0  0  0  0
  1  2  2  1  0  0  0
  1 23  1  0  0  0  0
  3 49  1  0  0  0  0
  3  1  1  0  0  0  0
  4  5  1  0  0  0  0
  5 51  1  0  0  0  0
  5 50  1  0  0  0  0
  6 52  1  6  0  0  0
  6  5  1  0  0  0  0
  6  8  1  0  0  0  0
  7 12  1  0  0  0  0
  7  6  1  0  0  0  0
  8 53  1  1  0  0  0
  8  9  1  0  0  0  0
  9 54  1  0  0  0  0
 10  8  1  0  0  0  0
 10 55  1  1  0  0  0
 11 10  1  0  0  0  0
 11 45  1  0  0  0  0
 12 56  1  6  0  0  0
 12 13  1  0  0  0  0
 12 10  1  0  0  0  0
 13 22  1  0  0  0  0
 13 14  1  0  0  0  0
 14 15  2  0  0  0  0
 16 15  1  0  0  0  0
 16 17  1  0  0  0  0
 17 18  1  1  0  0  0
 18 58  1  0  0  0  0
 19 17  1  0  0  0  0
 20 19  2  0  0  0  0
 21 20  1  0  0  0  0
 21 22  1  0  0  0  0
 22 16  2  0  0  0  0
 23 24  1  0  0  0  0
 24 25  2  1  0  0  0
 24 26  1  0  0  0  0
 27 24  1  0  0  0  0
 28 29  1  0  0  0  0
 28 61  1  0  0  0  0
 28 27  1  0  0  0  0
 29 63  1  1  0  0  0
 30 29  1  0  0  0  0
 31 64  1  6  0  0  0
 31 32  1  0  0  0  0
 31 29  1  0  0  0  0
 32 65  1  0  0  0  0
 33 66  1  6  0  0  0
 33 35  1  0  0  0  0
 33 31  1  0  0  0  0
 34 33  1  0  0  0  0
 34 67  1  0  0  0  0
 35 68  1  1  0  0  0
 35 30  1  0  0  0  0
 36 35  1  0  0  0  0
 37 69  1  0  0  0  0
 37 36  1  0  0  0  0
 38 37  2  0  0  0  0
 39 41  1  0  0  0  0
 39 38  1  0  0  0  0
 40 39  2  0  0  0  0
 41 71  1  0  0  0  0
 42 43  1  0  0  0  0
 42 38  1  0  0  0  0
 43 44  2  0  0  0  0
 44 74  1  0  0  0  0
 44 36  1  0  0  0  0
 45 47  1  0  0  0  0
 45 48  1  0  0  0  0
 46 45  2  0  0  0  0
 47 75  1  0  0  0  0
 48 76  1  0  0  0  0
 57 14  1  0  0  0  0
 59 18  1  0  0  0  0
 60 20  1  0  0  0  0
 62 28  1  0  0  0  0
 70 41  1  0  0  0  0
 72 42  1  0  0  0  0
 73 43  1  0  0  0  0
M  END
