lig
     RDKit          3D

 75 79  0  0  1  0  0  0  0  0999 V2000
   -6.0326    4.0616    6.9055 P   0  0  1  0  0  0  0  0  0  0  0  0
   -5.8243    2.5879    7.1637 O   0  0  0  0  0  0  0  0  0  0  0  0
   -5.6409    4.6835    5.5800 O   0  0  0  0  0  0  0  0  0  0  0  0
   -7.6385    4.3292    7.0481 O   0  0  0  0  0  0  0  0  0  0  0  0
   -8.2295    3.7665    8.2053 C   0  0  0  0  0  0  0  0  0  0  0  0
   -9.7376    3.7981    8.0666 C   0  0  1  0  0  0  0  0  0  0  0  0
  -10.2237    2.7255    7.2305 O   0  0  0  0  0  0  0  0  0  0  0  0
  -10.4347    3.5900    9.3882 C   0  0  1  0  0  0  0  0  0  0  0  0
  -10.3569    4.7152   10.2340 O   0  0  0  0  0  0  0  0  0  0  0  0
  -11.8354    3.2363    8.9449 C   0  0  1  0  0  0  0  0  0  0  0  0
  -12.4988    4.3875    8.4238 O   0  0  0  0  0  0  0  0  0  0  0  0
  -11.5165    2.3340    7.7542 C   0  0  2  0  0  0  0  0  0  0  0  0
  -11.4432    0.9299    8.1143 N   0  0  0  0  0  0  0  0  0  0  0  0
  -10.3212    0.2270    8.4672 C   0  0  0  0  0  0  0  0  0  0  0  0
  -10.5874   -1.0444    8.7056 N   0  0  0  0  0  0  0  0  0  0  0  0
  -11.9436   -1.1615    8.4943 C   0  0  0  0  0  0  0  0  0  0  0  0
  -12.8315   -2.2446    8.5935 C   0  0  0  0  0  0  0  0  0  0  0  0
  -12.3880   -3.5233    8.9733 N   0  0  0  0  0  0  0  0  0  0  0  0
  -14.1503   -2.0309    8.3140 N   0  0  0  0  0  0  0  0  0  0  0  0
  -14.5325   -0.7869    7.9527 C   0  0  0  0  0  0  0  0  0  0  0  0
  -13.7626    0.2957    7.7875 N   0  0  0  0  0  0  0  0  0  0  0  0
  -12.4861    0.0514    8.1020 C   0  0  0  0  0  0  0  0  0  0  0  0
   -5.5339    4.9763    8.1207 O   0  0  0  0  0  0  0  0  0  0  0  0
   -4.0968    5.1599    8.7964 P   0  0  2  0  0  0  0  0  0  0  0  0
   -3.7605    4.0171    9.7259 O   0  0  0  0  0  0  0  0  0  0  0  0
   -3.9970    6.5761    9.3458 O   0  0  0  0  0  0  0  0  0  0  0  0
   -3.1009    5.0979    7.5170 O   0  0  0  0  0  0  0  0  0  0  0  0
   -3.0143    6.3067    6.7843 C   0  0  0  0  0  0  0  0  0  0  0  0
   -1.5916    6.8391    6.9256 C   0  0  1  0  0  0  0  0  0  0  0  0
   -0.6535    5.9498    6.2708 O   0  0  0  0  0  0  0  0  0  0  0  0
   -1.4595    8.1932    6.2413 C   0  0  1  0  0  0  0  0  0  0  0  0
   -0.3702    8.9021    6.8413 O   0  0  0  0  0  0  0  0  0  0  0  0
   -1.0767    7.7812    4.8378 C   0  0  1  0  0  0  0  0  0  0  0  0
   -0.4012    8.8149    4.1322 O   0  0  0  0  0  0  0  0  0  0  0  0
   -0.1611    6.6129    5.1125 C   0  0  2  0  0  0  0  0  0  0  0  0
   -0.0134    5.7123    3.9798 N   0  0  0  0  0  0  0  0  0  0  0  0
    1.2598    5.3588    3.5626 C   0  0  0  0  0  0  0  0  0  0  0  0
    1.4879    4.4022    2.6483 C   0  0  0  0  0  0  0  0  0  0  0  0
    2.8507    4.0541    2.1966 C   0  0  0  0  0  0  0  0  0  0  0  0
    3.0456    3.1973    1.3373 O   0  0  0  0  0  0  0  0  0  0  0  0
    3.8555    4.7723    2.7976 N   0  0  0  0  0  0  0  0  0  0  0  0
    0.3501    3.6349    2.0416 C   0  0  0  0  0  0  0  0  0  0  0  0
   -0.9976    4.0602    2.5441 C   0  0  0  0  0  0  0  0  0  0  0  0
   -1.1092    5.0254    3.4689 C   0  0  0  0  0  0  0  0  0  0  0  0
  -13.8896    4.7747    9.1606 P   0  0  1  0  0  0  0  0  0  0  0  0
  -14.6578    5.7046    8.2526 O   0  0  0  0  0  0  0  0  0  0  0  0
  -14.4947    3.4938    9.6870 O   0  0  0  0  0  0  0  0  0  0  0  0
  -13.2954    5.6336   10.4108 O   0  0  0  0  0  0  0  0  0  0  0  0
   -7.8932    2.7254    8.3198 H   0  0  0  0  0  0  0  0  0  0  0  0
   -7.9298    4.3473    9.0901 H   0  0  0  0  0  0  0  0  0  0  0  0
   -9.9539    4.7884    7.6396 H   0  0  0  0  0  0  0  0  0  0  0  0
   -9.9807    2.8118   10.0194 H   0  0  0  0  0  0  0  0  0  0  0  0
  -10.3773    4.4199   11.1787 H   0  0  0  0  0  0  0  0  0  0  0  0
  -12.4642    2.8146    9.7429 H   0  0  0  0  0  0  0  0  0  0  0  0
  -12.3266    2.4516    7.0194 H   0  0  0  0  0  0  0  0  0  0  0  0
   -9.3170    0.6695    8.5429 H   0  0  0  0  0  0  0  0  0  0  0  0
  -13.0584   -4.3025    9.0390 H   0  0  0  0  0  0  0  0  0  0  0  0
  -11.3925   -3.6811    9.1858 H   0  0  0  0  0  0  0  0  0  0  0  0
  -15.6084   -0.6460    7.7721 H   0  0  0  0  0  0  0  0  0  0  0  0
   -3.7294    7.0395    7.1863 H   0  0  0  0  0  0  0  0  0  0  0  0
   -3.2547    6.1311    5.7253 H   0  0  0  0  0  0  0  0  0  0  0  0
   -1.3769    6.9188    8.0015 H   0  0  0  0  0  0  0  0  0  0  0  0
   -2.3515    8.8343    6.2988 H   0  0  0  0  0  0  0  0  0  0  0  0
   -0.4470    8.8521    7.8271 H   0  0  0  0  0  0  0  0  0  0  0  0
   -1.9400    7.5463    4.1978 H   0  0  0  0  0  0  0  0  0  0  0  0
    0.0089    9.4424    4.7789 H   0  0  0  0  0  0  0  0  0  0  0  0
    0.8587    6.9859    5.2881 H   0  0  0  0  0  0  0  0  0  0  0  0
    2.1214    5.8848    3.9995 H   0  0  0  0  0  0  0  0  0  0  0  0
    4.8378    4.5957    2.5433 H   0  0  0  0  0  0  0  0  0  0  0  0
    3.6266    5.4874    3.5027 H   0  0  0  0  0  0  0  0  0  0  0  0
    0.4871    2.5685    2.2738 H   0  0  0  0  0  0  0  0  0  0  0  0
    0.3681    3.8336    0.9598 H   0  0  0  0  0  0  0  0  0  0  0  0
   -1.9033    3.5759    2.1504 H   0  0  0  0  0  0  0  0  0  0  0  0
   -2.1119    5.2850    3.8396 H   0  0  0  0  0  0  0  0  0  0  0  0
  -13.5826    5.2185   11.2624 H   0  0  0  0  0  0  0  0  0  0  0  0
  1  4  1  0
  1  2  2  0
  1 23  1  0
  1  3  1  1
  4  5  1  0
  6  5  1  0
  6  8  1  0
  7 12  1  0
  7  6  1  0
  8 10  1  0
  8  9  1  0
 10 12  1  0
 11 10  1  0
 11 45  1  0
 12 13  1  0
 13 22  1  0
 13 14  1  0
 14 15  2  0
 16 15  1  0
 16 17  2  0
 17 18  1  0
 19 17  1  0
 20 19  2  0
 21 20  1  0
 21 22  2  0
 22 16  1  0
 23 24  1  0
 24 25  2  0
 24 26  1  6
 27 24  1  0
 28 29  1  0
 28 27  1  0
 29 31  1  0
 30 29  1  0
 31 33  1  0
 31 32  1  0
 33 35  1  0
 34 33  1  0
 35 30  1  0
 35 36  1  0
 37 36  1  0
 38 37  2  0
 39 41  1  0
 39 38  1  0
 40 39  2  0
 42 43  1  0
 42 38  1  0
 43 44  2  0
 44 36  1  0
 45 47  1  1
 45 48  1  0
 46 45  2  0
  5 49  1  0
  5 50  1  0
  6 51  1  6
  8 52  1  1
  9 53  1  0
 10 54  1  1
 12 55  1  6
 14 56  1  0
 18 57  1  0
 18 58  1  0
 20 59  1  0
 28 60  1  0
 28 61  1  0
 29 62  1  1
 31 63  1  6
 32 64  1  0
 33 65  1  6
 34 66  1  0
 35 67  1  1
 37 68  1  0
 41 69  1  0
 41 70  1  0
 42 71  1  0
 42 72  1  0
 43 73  1  0
 44 74  1  0
 48 75  1  0
M  CHG  3   3  -1  26  -1  47  -1
M  END
